test_network/Sim_files_190128_OK_V0/RunDss/Transformer_ind.txt
New Transformer.TD401346 windings=2  Buses=[1 31.1.2.3.4] Conns=[Delta Wye] kVs=[22 0.420] kVAs=[630 630] XHL=4.0 sub=y 
New Transformer.TD400291 windings=2  Buses=[2 32.1.2.3.4] Conns=[Delta Wye] kVs=[22 0.420] kVAs=[1000 1000] XHL=4.0 sub=y 
New Transformer.TD000653 windings=2  Buses=[3 33.1.2.3.4] Conns=[Delta Wye] kVs=[22 0.420] kVAs=[630 630] XHL=4.0 sub=y 
New Transformer.TD008690 windings=2  Buses=[4 34.1.2.3.4] Conns=[Delta Wye] kVs=[22 0.420] kVAs=[630 630] XHL=4.0 sub=y 
New Transformer.TD006145 windings=2  Buses=[5 35.1.2.3.4] Conns=[Delta Wye] kVs=[22 0.420] kVAs=[630 630] XHL=4.0 sub=y 
New Transformer.TD400859 windings=2  Buses=[6 36.1.2.3.4] Conns=[Delta Wye] kVs=[22 0.420] kVAs=[630 630] XHL=4.0 sub=y 
New Transformer.TD006563 windings=2  Buses=[7 37.1.2.3.4] Conns=[Delta Wye] kVs=[22 0.420] kVAs=[630 630] XHL=4.0 sub=y 
New Transformer.TD008020 windings=2  Buses=[8 38.1.2.3.4] Conns=[Delta Wye] kVs=[22 0.420] kVAs=[630 630] XHL=4.0 sub=y 
New Transformer.TD400895 windings=2  Buses=[9 39.1.2.3.4] Conns=[Delta Wye] kVs=[22 0.420] kVAs=[630 630] XHL=4.0 sub=y 
New Transformer.TD008519 windings=2  Buses=[10 40.1.2.3.4] Conns=[Delta Wye] kVs=[22 0.420] kVAs=[630 630] XHL=4.0 sub=y 
New Transformer.TD400858 windings=2  Buses=[11 41.1.2.3.4] Conns=[Delta Wye] kVs=[22 0.420] kVAs=[630 630] XHL=4.0 sub=y 
New Transformer.TD006144 windings=2  Buses=[12 42.1.2.3.4] Conns=[Delta Wye] kVs=[22 0.420] kVAs=[630 630] XHL=4.0 sub=y 
New Transformer.TD009488 windings=2  Buses=[13 43.1.2.3.4] Conns=[Delta Wye] kVs=[22 0.420] kVAs=[630 630] XHL=4.0 sub=y 
New Transformer.TD008742 windings=2  Buses=[14 44.1.2.3.4] Conns=[Delta Wye] kVs=[22 0.420] kVAs=[630 630] XHL=4.0 sub=y 
New Transformer.TD008656 windings=2  Buses=[15 45.1.2.3.4] Conns=[Delta Wye] kVs=[22 0.420] kVAs=[630 630] XHL=4.0 sub=y 
New Transformer.TD008016 windings=2  Buses=[16 46.1.2.3.4] Conns=[Delta Wye] kVs=[22 0.420] kVAs=[630 630] XHL=4.0 sub=y 
New Transformer.TD009183 windings=2  Buses=[17 47.1.2.3.4] Conns=[Delta Wye] kVs=[22 0.420] kVAs=[630 630] XHL=4.0 sub=y 
New Transformer.TD402085 windings=2  Buses=[18 48.1.2.3.4] Conns=[Delta Wye] kVs=[22 0.420] kVAs=[630 630] XHL=4.0 sub=y 
New Transformer.TD009116 windings=2  Buses=[19 49.1.2.3.4] Conns=[Delta Wye] kVs=[22 0.420] kVAs=[630 630] XHL=4.0 sub=y 
New Transformer.TD009471 windings=2  Buses=[20 50.1.2.3.4] Conns=[Delta Wye] kVs=[22 0.420] kVAs=[630 630] XHL=4.0 sub=y 
New Transformer.TD009456 windings=2  Buses=[21 51.1.2.3.4] Conns=[Delta Wye] kVs=[22 0.420] kVAs=[630 630] XHL=4.0 sub=y 
New Transformer.TD009478 windings=2  Buses=[22 52.1.2.3.4] Conns=[Delta Wye] kVs=[22 0.420] kVAs=[630 630] XHL=4.0 sub=y 
New Transformer.TD009460 windings=2  Buses=[23 53.1.2.3.4] Conns=[Delta Wye] kVs=[22 0.420] kVAs=[630 630] XHL=4.0 sub=y 
New Transformer.TD009451 windings=2  Buses=[24 54.1.2.3.4] Conns=[Delta Wye] kVs=[22 0.420] kVAs=[630 630] XHL=4.0 sub=y 
New Transformer.TD400079 windings=2  Buses=[25 55.1.2.3.4] Conns=[Delta Wye] kVs=[22 0.420] kVAs=[630 630] XHL=4.0 sub=y 
New Transformer.TD400067 windings=2  Buses=[26 56.1.2.3.4] Conns=[Delta Wye] kVs=[22 0.420] kVAs=[630 630] XHL=4.0 sub=y 
New Transformer.TD400828 windings=2  Buses=[27 57.1.2.3.4] Conns=[Delta Wye] kVs=[22 0.420] kVAs=[630 630] XHL=4.0 sub=y 
New Transformer.TD401426 windings=2  Buses=[28 58.1.2.3.4] Conns=[Delta Wye] kVs=[22 0.420] kVAs=[630 630] XHL=4.0 sub=y 
New Transformer.TD402679 windings=2  Buses=[29 59.1.2.3.4] Conns=[Delta Wye] kVs=[22 0.420] kVAs=[630 630] XHL=4.0 sub=y 
New Transformer.TD004454 windings=2  Buses=[30 60.1.2.3.4] Conns=[Delta Wye] kVs=[22 0.420] kVAs=[250 250] XHL=4.0 sub=y 
